*BC327
.MODEL BC327 PNP (IS=0.230P NF=1.000 BF=504.327 VAF=26.000 IKF=0.780
+ ISE=39.284F NE=1.944 NR=1.002 BR=23.000 VAR=4.500 IKR=0.195
+ ISC=0.118F NC=3.025
+ RB=0.800 IRB=0.100M RBM=0.400
+ RE=0.203 RC=0.262
+ CJE=57.177P VJE=1.000 MJE=0.470 FC=0.750
+ CJC=28.600P VJC=1.000 MJC=0.520 XCJC=0.650
+ TF=0.664N TR=2.600N PTF=1.000
+ XTF=6.350 VTF=2.000 ITF=0.250
+ XTB=1.700 EG=1.110 XTI=4.800
+ KF=5.000F AF=1.000)